data_TESTSYMOP
#*******************************************************************************#
#                                                                               #
#   Test file generated to check that spurious "double" copies due to symmetry  #
#   operations are properly dealt with                                          #
#                                                                               #
#*******************************************************************************#

_cell_length_a                  10.0000(0)
_cell_length_b                  10.0000(0)
_cell_length_c                  10.0000(0)
_cell_angle_alpha               90.0000(0)
_cell_angle_beta                90.0000(0)
_cell_angle_gamma               90.0000(0)

loop_
_symmetry_equiv_pos_as_xyz
'+x,+y,+z'
'+x,+x-y,+z'

loop_
_atom_site_label
_atom_site_type_symbol
_atom_site_fract_x
_atom_site_fract_y
_atom_site_fract_z
    H1    H     0.9999    1.0000    0.0000
    H1    H     0.0000    1.0000    0.5000